ls_unit.def: written by SWAT+ editor v2.2.0 on 2023-03-24 15:28 for SWAT+ rev.60.5.4
1450
      id              name          area  elem_tot  elements  
       1          rtu00010      34.43750         2      3340     -3345  
       2          rtu00020       5.25000         2      3335     -3339  
       3          rtu00030     368.00000         2      3313     -3315  
       4          rtu00040    1859.25000         2      2107     -2121  
       5          rtu00050     197.62500         2      2092     -2106  
       6          rtu00060      23.37500         2      2194     -2200  
       7          rtu00070     941.68750         2      2130     -2153  
       8          rtu00080     752.37500         2      2201     -2204  
       9          rtu00090      48.87500         2       771      -776  
      10          rtu00100    6216.62500         2       225      -229  
      11          rtu00110    4589.31250         2       677      -691  
      12          rtu00120      20.43750         2       697      -700  
      13          rtu00130    2579.43750         2      1247     -1276  
      14          rtu00140    5041.56250         2       201      -218  
      15          rtu00150    1914.12500         2       568      -584  
      16          rtu00160     438.62500         2      1459     -1464  
      17          rtu00170    1553.93750         2      1217     -1246  
      18          rtu00180      43.31250         2      1455     -1458  
      19          rtu00190     234.18750         2      1425     -1428  
      20          rtu00200     405.50000         2      1200     -1216  
      21          rtu00210     907.68750         2       600      -606  
      22          rtu00220     845.12500         2       534      -537  
      23          rtu00230     528.75000         2      1163     -1180  
      24          rtu00240     371.93750         2      1385     -1392  
      25          rtu00250      35.06250         2      1393     -1400  
      26          rtu00260    1336.56250         2      1363     -1371  
      27          rtu00270    4340.43750         2       662      -667  
      28          rtu00280    1239.81250         2      1060     -1091  
      29          rtu00290     349.93750         2      2553     -2581  
      30          rtu00300    3482.68750         2       173      -192  
      31          rtu00310      62.87500         2      1092     -1099  
      32          rtu00320    2592.43750         2      1750     -1788  
      33          rtu00330    1326.50000         2      1322     -1331  
      34          rtu00340     950.25000         2       160      -172  
      35          rtu00350    4019.37500         2       511      -518  
      36          rtu00360     488.00000         2      1839     -1872  
      37          rtu00370      24.12500         2       701      -702  
      38          rtu00380     122.62500         2      1834     -1838  
      39          rtu00390    1063.93750         2      1010     -1034  
      40          rtu00400    1479.12500         2       493      -510  
      41          rtu00410    3745.56250         2      1342     -1349  
      42          rtu00420    1438.93750         2       672      -676  
      43          rtu00430      46.00000         2      1873     -1876  
      44          rtu00440    3774.56250         2       930      -944  
      45          rtu00450     218.12500         2      1135     -1136  
      46          rtu00460    2334.93750         2      1821     -1827  
      47          rtu00470    1663.12500         2       118      -127  
      48          rtu00480    2221.12500         2       632      -641  
      49          rtu00490    3751.68750         2      1937     -1954  
      50          rtu00500    1105.93750         2      1120     -1134  
      51          rtu00520    2546.18750         2       128      -144  
      52          rtu00530     146.37500         2      1446     -1454  
      53          rtu00540    1673.56250         2       450      -466  
      54          rtu00550     422.56250         2       109      -117  
      55          rtu00560     312.43750         2      1983     -2007  
      56          rtu00570    5802.68750         2      1715     -1744  
      57          rtu00580    3295.50000         2       908      -929  
      58          rtu00590    2059.62500         2      1828     -1833  
      59          rtu00600       2.75000         2      2166     -2177  
      60          rtu00610     435.56250         2       715      -716  
      61          rtu00620     784.37500         2      1100     -1119  
      62          rtu00630     154.31250         2       888      -907  
      63          rtu00640     359.37500         2       416      -431  
      64          rtu00650     764.93750         2      2080     -2091  
      65          rtu00660     165.75000         2       711      -714  
      66          rtu00670    3522.37500         2      2443     -2461  
      67          rtu00680    2271.93750         2      1332     -1341  
      68          rtu00690    1575.62500         2        68       -96  
      69          rtu00700      69.06250         2       607      -614  
      70          rtu00710      78.43750         2      1415     -1420  
      71          rtu00720     338.43750         2      1421     -1424  
      72          rtu00730     433.37500         2       757      -770  
      73          rtu00740    2840.81250         2      2042     -2058  
      74          rtu00750    1601.81250         2      3852     -3863  
      75          rtu00760    1686.56250         2      3843     -3851  
      76          rtu00770    2202.31250         2      2122     -2129  
      77          rtu00780    1733.75000         2      3304     -3312  
      78          rtu00790    1473.93750         2      2068     -2071  
      79          rtu00800    1442.00000         2      2534     -2552  
      80          rtu00810    2323.12500         2       703      -710  
      81          rtu00820    1881.43750         2      2427     -2442  
      82          rtu00830    3422.87500         2      1372     -1384  
      83          rtu00840    1417.56250         2      1745     -1749  
      84          rtu00850    1950.75000         2      2072     -2079  
      85          rtu00860    2160.81250         2      1955     -1982  
      86          rtu00870    2958.12500         2      2059     -2067  
      87          rtu00880    1463.00000         2      2413     -2426  
      88          rtu00890    1544.06250         2      1357     -1362  
      89          rtu00900    2304.06250         2      2385     -2412  
      90          rtu00910    2841.50000         2      1181     -1199  
      91          rtu00920    1586.06250         2      1350     -1356  
      92          rtu00930    2248.31250         2       692      -696  
      93          rtu00940    2583.00000         2      1905     -1936  
      94          rtu00950    2007.43750         2       585      -599  
      95          rtu00960    2764.50000         2      1812     -1820  
      96          rtu00970    2438.06250         2       219      -224  
      97          rtu00980    1594.50000         2      1806     -1811  
      98          rtu00990    2276.06250         2      1797     -1805  
      99          rtu01000    3624.87500         2      1877     -1904  
     100          rtu01010    3211.25000         2      1313     -1321  
     101          rtu01020    1594.31250         2       668      -671  
     102          rtu01030    1596.81250         2      1137     -1162  
     103          rtu01040    2038.06250         2       519      -533  
     104          rtu01050    2080.37500         2      1052     -1059  
     105          rtu01060    1771.25000         2      1035     -1051  
     106          rtu01070    5042.75000         2      1789     -1796  
     107          rtu01080    3020.37500         2      1681     -1714  
     108          rtu01090    1578.56250         2      1306     -1312  
     109          rtu01100    2234.31250         2       193      -200  
     110          rtu01110    2598.68750         2      1298     -1305  
     111          rtu01120    1756.06250         2      1294     -1297  
     112          rtu01130    4327.50000         2      1289     -1293  
     113          rtu01140    5429.12500         2       653      -661  
     114          rtu01150    3333.93750         2      1653     -1680  
     115          rtu01160    6012.50000         2       945      -982  
     116          rtu01170    3463.87500         2       983     -1009  
     117          rtu01180    3470.93750         2       145      -159  
     118          rtu01190    1885.62500         2       467      -492  
     119          rtu01200    6994.43750         2      1277     -1288  
     120          rtu01210    3310.31250         2       642      -652  
     121          rtu01220    2041.93750         2       432      -449  
     122          rtu01230    2204.62500         2       875      -887  
     123          rtu01240    2668.93750         2        97      -108  
     124          rtu01250    3661.81250         2       626      -631  
     125          rtu01260    1692.50000         2       821      -857  
     126          rtu01270    5554.93750         2       777      -806  
     127          rtu01280    3386.43750         2       615      -625  
     128          rtu01290    2662.25000         2        53       -58  
     129          rtu01300    1739.87500         2       858      -874  
     130          rtu01310    2141.43750         2       383      -415  
     131          rtu01320    3213.56250         2        59       -67  
     132          rtu01330    2570.75000         2         1        -6  
     133          rtu01340    2519.56250         2       807      -820  
     134          rtu01350    2660.37500         2        43       -52  
     135          rtu01360    1530.75000         2       364      -382  
     136          rtu01370    1484.25000         2         7       -42  
     137          rtu01380    4040.00000         2       336      -363  
     138          rtu01390    1100.12500         2      7746     -7753  
     139          rtu01400    3355.31250         2      7712     -7717  
     140          rtu01410     318.56250         2      7688     -7704  
     141          rtu01420      70.06250         2      7705     -7711  
     142          rtu01430     444.56250         2      7123     -7127  
     143          rtu01440    4115.50000         2      7072     -7111  
     144          rtu01450      20.25000         2      7137     -7150  
     145          rtu01460     556.68750         2      7128     -7132  
     146          rtu01470     337.56250         2      7112     -7113  
     147          rtu01480      40.43750         2      7121     -7122  
     148          rtu01490       0.75000         1      5794  
     149          rtu01500     174.06250         2      5784     -5786  
     150          rtu01510    4539.75000         2      6977     -6983  
     151          rtu01520      46.56250         2      6984     -6997  
     152          rtu01530     416.12500         2      5739     -5748  
     153          rtu01540    1916.93750         2      6971     -6976  
     154          rtu01550    1866.18750         2      5692     -5710  
     155          rtu01560      10.75000         2      5681     -5691  
     156          rtu01570    3391.62500         2      6869     -6877  
     157          rtu01580     517.06250         2      6888     -6893  
     158          rtu01590    1435.18750         2      6865     -6868  
     159          rtu01600    4739.62500         2      5513     -5537  
     160          rtu01610      29.56250         2      5577     -5592  
     161          rtu01620    2916.31250         2      6878     -6887  
     162          rtu01630     149.00000         2      8413     -8418  
     163          rtu01640    8791.43750         2      5378     -5419  
     164          rtu01650    1304.75000         2      3460     -3473  
     165          rtu01660    8421.50000         2      8405     -8412  
     166          rtu01670    2691.43750         2      3361     -3366  
     167          rtu01680     174.00000         2      3434     -3447  
     168          rtu01690    2160.87500         2      9128     -9148  
     169          rtu01700    2121.56250         2      3404     -3407  
     170          rtu01710       0.93750         2      3448     -3450  
     171          rtu01720     510.62500         2      3418     -3433  
     172          rtu01730     935.75000         2      3375     -3381  
     173          rtu01740       4.12500         2      3382     -3387  
     174          rtu01750    3250.43750         2      9149     -9163  
     175          rtu01760    3131.12500         2      3316     -3334  
     176          rtu01770     639.25000         2      4808     -4814  
     177          rtu01780    2651.93750         2      5020     -5040  
     178          rtu01790    3098.68750         2      3217     -3241  
     179          rtu01800    2167.06250         2      4802     -4807  
     180          rtu01810      70.25000         2      4815     -4818  
     181          rtu01820     590.81250         2      4793     -4801  
     182          rtu01830    1331.25000         2      3192     -3216  
     183          rtu01840    8777.37500         2      4961     -4991  
     184          rtu01850    2279.12500         2      4922     -4948  
     185          rtu01860    3631.50000         2      4450     -4457  
     186          rtu01870       0.37500         1      4661  
     187          rtu01880     796.00000         2      4538     -4582  
     188          rtu01890    4722.06250         2      6825     -6845  
     189          rtu01900    5473.75000         2      3114     -3154  
     190          rtu01910    1015.31250         2      4434     -4449  
     191          rtu01920     167.12500         2      4583     -4608  
     192          rtu01930    3033.43750         2      3790     -3814  
     193          rtu01940     627.50000         2      4609     -4634  
     194          rtu01950     367.81250         2      3768     -3789  
     195          rtu01960    1768.68750         2      3079     -3113  
     196          rtu01970    1543.81250         2      4662     -4677  
     197          rtu01980    1779.75000         2      3718     -3734  
     198          rtu01990    4022.62500         2      2937     -2962  
     199          rtu02000    1023.00000         2      6428     -6440  
     200          rtu02010    3169.68750         2      3674     -3701  
     201          rtu02020      49.50000         2      6454     -6459  
     202          rtu02030    1919.56250         2      3055     -3076  
     203          rtu02040       8.56250         2      3077     -3078  
     204          rtu02050    2131.93750         2      3735     -3767  
     205          rtu02060    1493.12500         2      6441     -6453  
     206          rtu02070     480.56250         2      6224     -6238  
     207          rtu02080    4222.12500         2      2880     -2900  
     208          rtu02090       0.75000         2      3019     -3023  
     209          rtu02100    1956.81250         2      6492     -6504  
     210          rtu02110    3419.68750         2      4833     -4877  
     211          rtu02120    1309.06250         2      6220     -6223  
     212          rtu02130     707.68750         2      3563     -3584  
     213          rtu02140     731.87500         2      7803     -7813  
     214          rtu02150    1384.56250         2      2862     -2879  
     215          rtu02160     552.31250         2      6214     -6219  
     216          rtu02170    2665.68750         2      1582     -1624  
     217          rtu02180    2785.87500         2      6531     -6566  
     218          rtu02190     136.12500         2      1625     -1652  
     219          rtu02200     404.75000         2      6584     -6620  
     220          rtu02210     868.12500         2      2917     -2936  
     221          rtu02220    3778.87500         2      3527     -3562  
     222          rtu02230    1420.93750         2      1533     -1565  
     223          rtu02240    3271.81250         2      4045     -4080  
     224          rtu02250    5365.06250         2      9058     -9069  
     225          rtu02260    3311.12500         2       290      -335  
     226          rtu02270     196.43750         2      4014     -4044  
     227          rtu02280    2643.25000         2      2802     -2813  
     228          rtu02290    1091.31250         2      3367     -3374  
     229          rtu02300    2856.81250         2      6648     -6679  
     230          rtu02310    4012.81250         2      1510     -1528  
     231          rtu02320    1767.62500         2       255      -289  
     232          rtu02330     974.81250         2      3702     -3717  
     233          rtu02340    1127.00000         2      2662     -2691  
     234          rtu02350     197.75000         2      3585     -3594  
     235          rtu02360     486.25000         2      2716     -2719  
     236          rtu02370    1145.00000         2      6694     -6706  
     237          rtu02380    1089.50000         2      1479     -1509  
     238          rtu02390      59.62500         2      6733     -6744  
     239          rtu02400     152.75000         2      2692     -2715  
     240          rtu02410    4281.06250         2      6680     -6693  
     241          rtu02420   10766.56250         2      7754     -7767  
     242          rtu02430    9622.56250         2      9094     -9127  
     243          rtu02440    2069.56250         2      6757     -6779  
     244          rtu02450    1895.00000         2       230      -235  
     245          rtu02460    4876.93750         2       717      -756  
     246          rtu02470    2692.50000         2      4081     -4108  
     247          rtu02480    6481.93750         2       538      -567  
     248          rtu02490    2468.68750         2      1401     -1414  
     249          rtu02500    4336.56250         2      2462     -2505  
     250          rtu02510   10409.25000         2      2008     -2041  
     251          rtu02520    7128.43750         2      3299     -3303  
     252          rtu02530    2521.31250         2      3474     -3497  
     253          rtu02540    2656.56250         2      3498     -3526  
     254          rtu02550     390.06250         2      2185     -2193  
     255          rtu02560    3003.81250         2      3864     -3879  
     256          rtu02570    3750.50000         2      3595     -3610  
     257          rtu02580    1812.81250         2      2506     -2533  
     258          rtu02590    1723.06250         2      2582     -2600  
     259          rtu02600    2125.00000         2      4330     -4349  
     260          rtu02610    1606.37500         2      6124     -6163  
     261          rtu02620     973.25000         2      6114     -6123  
     262          rtu02630    2293.93750         2      2219     -2242  
     263          rtu02640      36.31250         2      2284     -2299  
     264          rtu02650    5023.87500         2      4310     -4329  
     265          rtu02660    1325.12500         2      8679     -8682  
     266          rtu02670     596.43750         2      2270     -2274  
     267          rtu02680     528.00000         2      8730     -8735  
     268          rtu02690    1085.18750         2      2253     -2257  
     269          rtu02700       0.12500         1      2308  
     270          rtu02710      48.68750         2      2306     -2307  
     271          rtu02720    1955.43750         2      4295     -4309  
     272          rtu02730    2018.43750         2      7461     -7474  
     273          rtu02740      34.31250         2      7490     -7491  
     274          rtu02750     387.50000         2      8259     -8272  
     275          rtu02760    1723.68750         2      2258     -2269  
     276          rtu02770     149.93750         2      7458     -7460  
     277          rtu02780    4857.62500         2      6053     -6072  
     278          rtu02790      77.43750         2      6040     -6052  
     279          rtu02800    2625.81250         2      2205     -2218  
     280          rtu02810      17.56250         2      6369     -6379  
     281          rtu02820    1168.06250         2      8507     -8512  
     282          rtu02830     105.50000         2      7428     -7433  
     283          rtu02840       9.37500         2      2345     -2346  
     284          rtu02850    2219.18750         2      4243     -4256  
     285          rtu02860     595.06250         2      6894     -6895  
     286          rtu02870     979.31250         2      2340     -2344  
     287          rtu02880     500.25000         2      7434     -7441  
     288          rtu02890    2067.06250         2      5963     -5976  
     289          rtu02900     156.31250         2      8534     -8536  
     290          rtu02910    2466.56250         2      4184     -4190  
     291          rtu02920    4700.87500         2      7190     -7206  
     292          rtu02930     631.12500         2      2963     -2969  
     293          rtu02940     121.68750         2      2353     -2360  
     294          rtu02950     238.68750         2      5145     -5154  
     295          rtu02960     122.56250         2      5977     -5990  
     296          rtu02970     111.25000         2      8495     -8506  
     297          rtu02980    1012.50000         2      4787     -4792  
     298          rtu02990     754.43750         2      7409     -7415  
     299          rtu03000    1336.43750         2      5945     -5950  
     300          rtu03010      88.12500         2      4521     -4537  
     301          rtu03020     783.75000         2      2361     -2366  
     302          rtu03030     201.87500         2      4992     -5000  
     303          rtu03040    5432.81250         2      8273     -8292  
     304          rtu03050     747.00000         2      5991     -6001  
     305          rtu03060     994.12500         2      7612     -7626  
     306          rtu03070     602.68750         2      7420     -7427  
     307          rtu03080      62.50000         2      7442     -7449  
     308          rtu03090     725.81250         2      3024     -3040  
     309          rtu03100      51.62500         2      2372     -2376  
     310          rtu03110    3850.43750         2      5444     -5467  
     311          rtu03120     349.93750         2      8340     -8359  
     312          rtu03130     318.37500         2      7492     -7495  
     313          rtu03140    1016.56250         2      2814     -2834  
     314          rtu03150    1901.12500         2      5937     -5944  
     315          rtu03160      19.00000         2      3451     -3459  
     316          rtu03170      55.87500         2      5951     -5962  
     317          rtu03180       4.12500         2      5787     -5793  
     318          rtu03190    1875.62500         2      4164     -4183  
     319          rtu03200    1641.56250         2      7673     -7687  
     320          rtu03210    2959.43750         2      8683     -8712  
     321          rtu03220     107.31250         2      7394     -7408  
     322          rtu03230     751.31250         2      4499     -4520  
     323          rtu03240     380.25000         2      7114     -7120  
     324          rtu03250     207.68750         2      6033     -6039  
     325          rtu03260    1017.62500         2      7658     -7672  
     326          rtu03270    2823.12500         2      4227     -4242  
     327          rtu03280    3779.43750         2      8431     -8449  
     328          rtu03290    4151.31250         2      7239     -7264  
     329          rtu03300     647.68750         2      8519     -8525  
     330          rtu03310     420.93750         2      7367     -7374  
     331          rtu03320     716.37500         2      8488     -8494  
     332          rtu03330     299.18750         2      3961     -3976  
     333          rtu03340     146.56250         2      7718     -7729  
     334          rtu03350    1393.25000         2      6329     -6338  
     335          rtu03360     643.68750         2      7047     -7069  
     336          rtu03370    1336.50000         2      9260     -9271  
     337          rtu03380      94.62500         2      6460     -6477  
     338          rtu03390     367.87500         2      7416     -7419  
     339          rtu03400    1917.12500         2      5759     -5783  
     340          rtu03410    3347.06250         2      4748     -4766  
     341          rtu03420      22.81250         2      3408     -3409  
     342          rtu03430     355.06250         2      2178     -2184  
     343          rtu03440    1574.12500         2      6745     -6756  
     344          rtu03450    2378.00000         2      6707     -6732  
     345          rtu03460    1688.12500         2      5749     -5758  
     346          rtu03470    2556.31250         2      7768     -7802  
     347          rtu03480    4569.18750         2      8736     -8759  
     348          rtu03490    3019.62500         2      9164     -9181  
     349          rtu03500    1686.43750         2      8542     -8547  
     350          rtu03510    7729.93750         2      6621     -6647  
     351          rtu03520    1495.93750         2      5615     -5643  
     352          rtu03530    5578.06250         2      9070     -9093  
     353          rtu03540    1687.31250         2      5120     -5144  
     354          rtu03550    1647.75000         2      8513     -8518  
     355          rtu03560    1786.37500         2      5593     -5614  
     356          rtu03570    3159.06250         2      9233     -9245  
     357          rtu03580    2944.93750         2      8479     -8487  
     358          rtu03590    3225.00000         2      3254     -3258  
     359          rtu03600    1775.56250         2      8463     -8470  
     360          rtu03610    3351.93750         2      8760     -8777  
     361          rtu03620    3918.62500         2      5711     -5738  
     362          rtu03630    2979.68750         2      6087     -6113  
     363          rtu03640    1847.31250         2      8714     -8729  
     364          rtu03650    2499.31250         2      8471     -8478  
     365          rtu03660    4253.62500         2      7496     -7504  
     366          rtu03670    1617.18750         2      8450     -8462  
     367          rtu03680    4414.50000         2      8360     -8389  
     368          rtu03690    1657.25000         2      6073     -6086  
     369          rtu03700    1437.50000         2      7730     -7745  
     370          rtu03710    3660.50000         2      3242     -3253  
     371          rtu03720    2933.93750         1      8713  
     372          rtu03730    1840.18750         2      5644     -5680  
     373          rtu03740    1590.75000         2      7475     -7489  
     374          rtu03750    1469.31250         2      7275     -7310  
     375          rtu03760    1571.00000         2      7151     -7189  
     376          rtu03770    1675.06250         2      7627     -7657  
     377          rtu03780    1539.06250         2      7133     -7136  
     378          rtu03790    5386.93750         2      6931     -6933  
     379          rtu03800    1949.87500         2      7265     -7274  
     380          rtu03810    1556.37500         2      6567     -6583  
     381          rtu03820    1581.12500         2      7070     -7071  
     382          rtu03830    1841.50000         2      7389     -7393  
     383          rtu03840    5983.37500         2      6505     -6530  
     384          rtu03850    1851.62500         2      7593     -7611  
     385          rtu03860    1893.68750         2      8390     -8404  
     386          rtu03870    4405.06250         2      3179     -3191  
     387          rtu03880    1564.50000         2      6309     -6328  
     388          rtu03890    1601.43750         2      7375     -7388  
     389          rtu03900    2286.68750         2      7351     -7358  
     390          rtu03910    3784.56250         2      5001     -5019  
     391          rtu03920    1449.68750         2      8310     -8339  
     392          rtu03930    2443.43750         2      7578     -7592  
     393          rtu03940    3557.56250         2      7207     -7238  
     394          rtu03950    4821.68750         2      6998     -7002  
     395          rtu03960    2350.81250         2      6285     -6308  
     396          rtu03970    2506.00000         2      5538     -5576  
     397          rtu03980    1371.81250         2      7359     -7366  
     398          rtu03990    2697.62500         2      7009     -7034  
     399          rtu04000    2334.00000         2      8427     -8430  
     400          rtu04010    3416.06250         2      7311     -7337  
     401          rtu04020    2241.68750         2      8425     -8426  
     402          rtu04030    2648.25000         2      8419     -8424  
     403          rtu04040    4231.37500         2      6266     -6284  
     404          rtu04050    2777.37500         2      7040     -7046  
     405          rtu04060    1887.75000         2      7338     -7344  
     406          rtu04070    1965.68750         2      7035     -7039  
     407          rtu04080    1565.62500         2      7003     -7008  
     408          rtu04090    2554.87500         2      6002     -6032  
     409          rtu04100    2388.00000         2      4819     -4832  